<?xml version="1.0" encoding="UTF-8"?>

<!-- generated on lun 14 giu 2021, 16:43:09 by Eclipse SUMO netedit Version 1.4.0
<configuration xmlns:xsi="http://www.w3.org/2001/XMLSchema-instance" xsi:noNamespaceSchemaLocation="http://sumo.dlr.de/xsd/netconvertConfiguration.xsd">

    <input>
        <sumo-net-file value="sorpasso.net.xml"/>
    </input>

    <output>
        <output-file value="sorpasso.net.xml"/>
    </output>

    <processing>
        <geometry.min-radius.fix.railways value="false"/>
        <geometry.max-grade.fix value="false"/>
        <offset.disable-normalization value="true"/>
        <lefthand value="false"/>
    </processing>

    <junctions>
        <no-turnarounds value="true"/>
        <junctions.corner-detail value="0"/>
        <junctions.limit-turn-speed value="-1"/>
        <rectangular-lane-cut value="false"/>
    </junctions>

    <pedestrian>
        <walkingareas value="false"/>
    </pedestrian>

    <report>
        <aggregate-warnings value="5"/>
    </report>

</configuration>
-->

<net version="1.3" xmlns:xsi="http://www.w3.org/2001/XMLSchema-instance" xsi:noNamespaceSchemaLocation="http://sumo.dlr.de/xsd/net_file.xsd">

    <location netOffset="0.00,254.00" convBoundary="0.00,0.00,50000.00,254.00" origBoundary="0.00,-254.00,50000.00,0.00" projParameter="!"/>

    <edge id=":node_0_1_0" function="internal">
        <lane id=":node_0_1_0_0" index="0" speed="90.11" length="10.98" shape="9396.00,249.20 9399.01,247.70 9400.00,244.40 9400.99,241.10 9404.00,239.60"/>
        <lane id=":node_0_1_0_1" index="1" speed="90.11" length="10.98" shape="9396.00,252.40 9399.01,250.90 9400.00,247.60 9400.99,244.30 9404.00,242.80"/>
        <lane id=":node_0_1_0_2" index="2" speed="90.11" length="10.98" shape="9396.00,252.40 9398.69,251.40 9400.00,249.20 9401.31,247.00 9404.00,246.00"/>
        <lane id=":node_0_1_0_3" index="3" speed="90.11" length="10.98" shape="9396.00,252.40 9398.46,251.90 9400.00,250.80 9401.54,249.70 9404.00,249.20"/>
        <lane id=":node_0_1_0_4" index="4" speed="90.11" length="10.98" shape="9396.00,252.40 9404.00,252.40"/>
    </edge>
    <edge id=":node_0_2_0" function="internal">
        <lane id=":node_0_2_0_0" index="0" speed="57.55" length="8.66" shape="9620.84,239.60 9623.40,239.56 9625.16,239.34 9626.83,238.75 9629.14,237.64"/>
    </edge>
    <edge id=":node_0_2_1" function="internal">
        <lane id=":node_0_2_1_0" index="0" speed="90.11" length="8.76" shape="9620.84,242.80 9629.60,242.80"/>
        <lane id=":node_0_2_1_1" index="1" speed="90.11" length="8.76" shape="9620.84,246.00 9629.60,246.00"/>
        <lane id=":node_0_2_1_2" index="2" speed="90.11" length="8.76" shape="9620.84,249.20 9629.60,249.20"/>
        <lane id=":node_0_2_1_3" index="3" speed="90.11" length="8.76" shape="9620.84,252.40 9629.60,252.40"/>
    </edge>
    <edge id=":node_0_3_0" function="internal">
        <lane id=":node_0_3_0_0" index="0" speed="57.55" length="8.66" shape="9770.86,237.64 9773.17,238.75 9774.84,239.34 9776.60,239.56 9779.16,239.60"/>
    </edge>
    <edge id=":node_0_3_1" function="internal">
        <lane id=":node_0_3_1_0" index="0" speed="90.11" length="8.76" shape="9770.40,242.80 9779.16,242.80"/>
        <lane id=":node_0_3_1_1" index="1" speed="90.11" length="8.76" shape="9770.40,246.00 9779.16,246.00"/>
        <lane id=":node_0_3_1_2" index="2" speed="90.11" length="8.76" shape="9770.40,249.20 9779.16,249.20"/>
        <lane id=":node_0_3_1_3" index="3" speed="90.11" length="8.76" shape="9770.40,252.40 9779.16,252.40"/>
    </edge>
    <edge id=":node_0_4_0" function="internal">
        <lane id=":node_0_4_0_0" index="0" speed="90.11" length="8.00" shape="9996.00,242.80 10004.00,242.80"/>
        <lane id=":node_0_4_0_1" index="1" speed="90.11" length="8.00" shape="9996.00,246.00 10004.00,246.00"/>
        <lane id=":node_0_4_0_2" index="2" speed="90.11" length="8.00" shape="9996.00,249.20 10004.00,249.20"/>
        <lane id=":node_0_4_0_3" index="3" speed="90.11" length="8.00" shape="9996.00,252.40 10004.00,252.40"/>
    </edge>
    <edge id=":node_0_5_0" function="internal">
        <lane id=":node_0_5_0_0" index="0" speed="25.00" length="6.22" shape="9701.60,199.55 9701.79,201.16 9702.37,202.53 9703.34,203.67 9704.70,204.56"/>
    </edge>
    <edge id=":node_0_5_1" function="internal">
        <lane id=":node_0_5_1_0" index="0" speed="25.00" length="2.53" shape="9701.60,199.55 9700.80,200.75 9700.00,201.15 9699.83,201.06"/>
    </edge>
    <edge id=":node_0_5_4" function="internal">
        <lane id=":node_0_5_4_0" index="0" speed="25.00" length="2.15" shape="9699.83,201.06 9699.20,200.75 9698.40,199.55"/>
    </edge>
    <edge id=":node_0_5_2" function="internal">
        <lane id=":node_0_5_2_0" index="0" speed="25.00" length="6.22" shape="9695.30,204.56 9696.66,203.67 9697.63,202.53 9698.21,201.16 9698.40,199.55"/>
    </edge>
    <edge id=":node_0_5_3" function="internal">
        <lane id=":node_0_5_3_0" index="0" speed="25.00" length="6.00" shape="9695.30,204.56 9697.65,203.68 9700.00,203.39 9701.12,203.52"/>
    </edge>
    <edge id=":node_0_5_5" function="internal">
        <lane id=":node_0_5_5_0" index="0" speed="25.00" length="3.75" shape="9701.12,203.52 9702.35,203.68 9704.70,204.56"/>
    </edge>
    <edge id=":node_0_6_0" function="internal">
        <lane id=":node_0_6_0_0" index="0" speed="25.00" length="0.10" shape="9698.40,4.00 9698.40,4.00"/>
    </edge>
    <edge id=":node_0_6_1" function="internal">
        <lane id=":node_0_6_1_0" index="0" speed="25.00" length="2.34" shape="9698.40,4.00 9699.20,2.80 9700.00,2.40"/>
    </edge>
    <edge id=":node_0_6_4" function="internal">
        <lane id=":node_0_6_4_0" index="0" speed="25.00" length="2.34" shape="9700.00,2.40 9700.80,2.80 9701.60,4.00"/>
    </edge>
    <edge id=":node_0_6_2" function="internal">
        <lane id=":node_0_6_2_0" index="0" speed="25.00" length="0.10" shape="9701.60,4.00 9701.60,4.00"/>
    </edge>
    <edge id=":node_0_6_3" function="internal">
        <lane id=":node_0_6_3_0" index="0" speed="25.00" length="2.34" shape="9701.60,4.00 9700.80,5.20 9700.00,5.60"/>
    </edge>
    <edge id=":node_0_6_5" function="internal">
        <lane id=":node_0_6_5_0" index="0" speed="25.00" length="2.34" shape="9700.00,5.60 9699.20,5.20 9698.40,4.00"/>
    </edge>
    <edge id=":node_0_7_0" function="internal">
        <lane id=":node_0_7_0_0" index="0" speed="25.00" length="4.67" shape="9698.40,0.00 9699.20,-1.20 9700.00,-1.60 9700.80,-1.20 9701.60,0.00"/>
    </edge>
    <edge id=":node_1_1_0" function="internal">
        <lane id=":node_1_1_0_0" index="0" speed="90.11" length="8.16" shape="19396.00,242.80 19398.46,242.30 19400.00,241.20 19401.54,240.10 19404.00,239.60"/>
        <lane id=":node_1_1_0_1" index="1" speed="90.11" length="8.16" shape="19396.00,242.80 19404.00,242.80"/>
        <lane id=":node_1_1_0_2" index="2" speed="90.11" length="8.16" shape="19396.00,246.00 19404.00,246.00"/>
        <lane id=":node_1_1_0_3" index="3" speed="90.11" length="8.16" shape="19396.00,249.20 19404.00,249.20"/>
        <lane id=":node_1_1_0_4" index="4" speed="90.11" length="8.16" shape="19396.00,252.40 19404.00,252.40"/>
    </edge>
    <edge id=":node_1_2_0" function="internal">
        <lane id=":node_1_2_0_0" index="0" speed="57.55" length="8.66" shape="19620.84,239.60 19623.40,239.56 19625.16,239.34 19626.83,238.75 19629.14,237.64"/>
    </edge>
    <edge id=":node_1_2_1" function="internal">
        <lane id=":node_1_2_1_0" index="0" speed="90.11" length="8.76" shape="19620.84,242.80 19629.60,242.80"/>
        <lane id=":node_1_2_1_1" index="1" speed="90.11" length="8.76" shape="19620.84,246.00 19629.60,246.00"/>
        <lane id=":node_1_2_1_2" index="2" speed="90.11" length="8.76" shape="19620.84,249.20 19629.60,249.20"/>
        <lane id=":node_1_2_1_3" index="3" speed="90.11" length="8.76" shape="19620.84,252.40 19629.60,252.40"/>
    </edge>
    <edge id=":node_1_3_0" function="internal">
        <lane id=":node_1_3_0_0" index="0" speed="57.55" length="8.66" shape="19770.86,237.64 19773.17,238.75 19774.84,239.34 19776.60,239.56 19779.16,239.60"/>
    </edge>
    <edge id=":node_1_3_1" function="internal">
        <lane id=":node_1_3_1_0" index="0" speed="90.11" length="8.76" shape="19770.40,242.80 19779.16,242.80"/>
        <lane id=":node_1_3_1_1" index="1" speed="90.11" length="8.76" shape="19770.40,246.00 19779.16,246.00"/>
        <lane id=":node_1_3_1_2" index="2" speed="90.11" length="8.76" shape="19770.40,249.20 19779.16,249.20"/>
        <lane id=":node_1_3_1_3" index="3" speed="90.11" length="8.76" shape="19770.40,252.40 19779.16,252.40"/>
    </edge>
    <edge id=":node_1_4_0" function="internal">
        <lane id=":node_1_4_0_0" index="0" speed="90.11" length="8.00" shape="19996.00,242.80 20004.00,242.80"/>
        <lane id=":node_1_4_0_1" index="1" speed="90.11" length="8.00" shape="19996.00,246.00 20004.00,246.00"/>
        <lane id=":node_1_4_0_2" index="2" speed="90.11" length="8.00" shape="19996.00,249.20 20004.00,249.20"/>
        <lane id=":node_1_4_0_3" index="3" speed="90.11" length="8.00" shape="19996.00,252.40 20004.00,252.40"/>
    </edge>
    <edge id=":node_1_5_0" function="internal">
        <lane id=":node_1_5_0_0" index="0" speed="25.00" length="6.22" shape="19701.60,199.55 19701.79,201.16 19702.37,202.53 19703.34,203.67 19704.70,204.56"/>
    </edge>
    <edge id=":node_1_5_1" function="internal">
        <lane id=":node_1_5_1_0" index="0" speed="25.00" length="2.53" shape="19701.60,199.55 19700.80,200.75 19700.00,201.15 19699.83,201.06"/>
    </edge>
    <edge id=":node_1_5_4" function="internal">
        <lane id=":node_1_5_4_0" index="0" speed="25.00" length="2.15" shape="19699.83,201.06 19699.20,200.75 19698.40,199.55"/>
    </edge>
    <edge id=":node_1_5_2" function="internal">
        <lane id=":node_1_5_2_0" index="0" speed="25.00" length="6.22" shape="19695.30,204.56 19696.66,203.67 19697.63,202.53 19698.21,201.16 19698.40,199.55"/>
    </edge>
    <edge id=":node_1_5_3" function="internal">
        <lane id=":node_1_5_3_0" index="0" speed="25.00" length="6.00" shape="19695.30,204.56 19697.65,203.68 19700.00,203.39 19701.12,203.52"/>
    </edge>
    <edge id=":node_1_5_5" function="internal">
        <lane id=":node_1_5_5_0" index="0" speed="25.00" length="3.75" shape="19701.12,203.52 19702.35,203.68 19704.70,204.56"/>
    </edge>
    <edge id=":node_1_6_0" function="internal">
        <lane id=":node_1_6_0_0" index="0" speed="25.00" length="0.10" shape="19698.40,4.00 19698.40,4.00"/>
    </edge>
    <edge id=":node_1_6_1" function="internal">
        <lane id=":node_1_6_1_0" index="0" speed="25.00" length="2.34" shape="19698.40,4.00 19699.20,2.80 19700.00,2.40"/>
    </edge>
    <edge id=":node_1_6_4" function="internal">
        <lane id=":node_1_6_4_0" index="0" speed="25.00" length="2.34" shape="19700.00,2.40 19700.80,2.80 19701.60,4.00"/>
    </edge>
    <edge id=":node_1_6_2" function="internal">
        <lane id=":node_1_6_2_0" index="0" speed="25.00" length="0.10" shape="19701.60,4.00 19701.60,4.00"/>
    </edge>
    <edge id=":node_1_6_3" function="internal">
        <lane id=":node_1_6_3_0" index="0" speed="25.00" length="2.34" shape="19701.60,4.00 19700.80,5.20 19700.00,5.60"/>
    </edge>
    <edge id=":node_1_6_5" function="internal">
        <lane id=":node_1_6_5_0" index="0" speed="25.00" length="2.34" shape="19700.00,5.60 19699.20,5.20 19698.40,4.00"/>
    </edge>
    <edge id=":node_1_7_0" function="internal">
        <lane id=":node_1_7_0_0" index="0" speed="25.00" length="4.67" shape="19698.40,0.00 19699.20,-1.20 19700.00,-1.60 19700.80,-1.20 19701.60,0.00"/>
    </edge>
    <edge id=":node_2_1_0" function="internal">
        <lane id=":node_2_1_0_0" index="0" speed="90.11" length="8.16" shape="29396.00,242.80 29398.46,242.30 29400.00,241.20 29401.54,240.10 29404.00,239.60"/>
        <lane id=":node_2_1_0_1" index="1" speed="90.11" length="8.16" shape="29396.00,242.80 29404.00,242.80"/>
        <lane id=":node_2_1_0_2" index="2" speed="90.11" length="8.16" shape="29396.00,246.00 29404.00,246.00"/>
        <lane id=":node_2_1_0_3" index="3" speed="90.11" length="8.16" shape="29396.00,249.20 29404.00,249.20"/>
        <lane id=":node_2_1_0_4" index="4" speed="90.11" length="8.16" shape="29396.00,252.40 29404.00,252.40"/>
    </edge>
    <edge id=":node_2_2_0" function="internal">
        <lane id=":node_2_2_0_0" index="0" speed="57.55" length="8.66" shape="29620.84,239.60 29623.40,239.56 29625.16,239.34 29626.83,238.75 29629.14,237.64"/>
    </edge>
    <edge id=":node_2_2_1" function="internal">
        <lane id=":node_2_2_1_0" index="0" speed="90.11" length="8.76" shape="29620.84,242.80 29629.60,242.80"/>
        <lane id=":node_2_2_1_1" index="1" speed="90.11" length="8.76" shape="29620.84,246.00 29629.60,246.00"/>
        <lane id=":node_2_2_1_2" index="2" speed="90.11" length="8.76" shape="29620.84,249.20 29629.60,249.20"/>
        <lane id=":node_2_2_1_3" index="3" speed="90.11" length="8.76" shape="29620.84,252.40 29629.60,252.40"/>
    </edge>
    <edge id=":node_2_3_0" function="internal">
        <lane id=":node_2_3_0_0" index="0" speed="57.55" length="8.66" shape="29770.86,237.64 29773.17,238.75 29774.84,239.34 29776.60,239.56 29779.16,239.60"/>
    </edge>
    <edge id=":node_2_3_1" function="internal">
        <lane id=":node_2_3_1_0" index="0" speed="90.11" length="8.76" shape="29770.40,242.80 29779.16,242.80"/>
        <lane id=":node_2_3_1_1" index="1" speed="90.11" length="8.76" shape="29770.40,246.00 29779.16,246.00"/>
        <lane id=":node_2_3_1_2" index="2" speed="90.11" length="8.76" shape="29770.40,249.20 29779.16,249.20"/>
        <lane id=":node_2_3_1_3" index="3" speed="90.11" length="8.76" shape="29770.40,252.40 29779.16,252.40"/>
    </edge>
    <edge id=":node_2_4_0" function="internal">
        <lane id=":node_2_4_0_0" index="0" speed="90.11" length="8.00" shape="29996.00,242.80 30004.00,242.80"/>
        <lane id=":node_2_4_0_1" index="1" speed="90.11" length="8.00" shape="29996.00,246.00 30004.00,246.00"/>
        <lane id=":node_2_4_0_2" index="2" speed="90.11" length="8.00" shape="29996.00,249.20 30004.00,249.20"/>
        <lane id=":node_2_4_0_3" index="3" speed="90.11" length="8.00" shape="29996.00,252.40 30004.00,252.40"/>
    </edge>
    <edge id=":node_2_5_0" function="internal">
        <lane id=":node_2_5_0_0" index="0" speed="25.00" length="6.22" shape="29701.60,199.55 29701.79,201.16 29702.37,202.53 29703.34,203.67 29704.70,204.56"/>
    </edge>
    <edge id=":node_2_5_1" function="internal">
        <lane id=":node_2_5_1_0" index="0" speed="25.00" length="2.53" shape="29701.60,199.55 29700.80,200.75 29700.00,201.15 29699.83,201.06"/>
    </edge>
    <edge id=":node_2_5_4" function="internal">
        <lane id=":node_2_5_4_0" index="0" speed="25.00" length="2.15" shape="29699.83,201.06 29699.20,200.75 29698.40,199.55"/>
    </edge>
    <edge id=":node_2_5_2" function="internal">
        <lane id=":node_2_5_2_0" index="0" speed="25.00" length="6.22" shape="29695.30,204.56 29696.66,203.67 29697.63,202.53 29698.21,201.16 29698.40,199.55"/>
    </edge>
    <edge id=":node_2_5_3" function="internal">
        <lane id=":node_2_5_3_0" index="0" speed="25.00" length="6.00" shape="29695.30,204.56 29697.65,203.68 29700.00,203.39 29701.12,203.52"/>
    </edge>
    <edge id=":node_2_5_5" function="internal">
        <lane id=":node_2_5_5_0" index="0" speed="25.00" length="3.75" shape="29701.12,203.52 29702.35,203.68 29704.70,204.56"/>
    </edge>
    <edge id=":node_2_6_0" function="internal">
        <lane id=":node_2_6_0_0" index="0" speed="25.00" length="0.10" shape="29698.40,4.00 29698.40,4.00"/>
    </edge>
    <edge id=":node_2_6_1" function="internal">
        <lane id=":node_2_6_1_0" index="0" speed="25.00" length="2.34" shape="29698.40,4.00 29699.20,2.80 29700.00,2.40"/>
    </edge>
    <edge id=":node_2_6_4" function="internal">
        <lane id=":node_2_6_4_0" index="0" speed="25.00" length="2.34" shape="29700.00,2.40 29700.80,2.80 29701.60,4.00"/>
    </edge>
    <edge id=":node_2_6_2" function="internal">
        <lane id=":node_2_6_2_0" index="0" speed="25.00" length="0.10" shape="29701.60,4.00 29701.60,4.00"/>
    </edge>
    <edge id=":node_2_6_3" function="internal">
        <lane id=":node_2_6_3_0" index="0" speed="25.00" length="2.34" shape="29701.60,4.00 29700.80,5.20 29700.00,5.60"/>
    </edge>
    <edge id=":node_2_6_5" function="internal">
        <lane id=":node_2_6_5_0" index="0" speed="25.00" length="2.34" shape="29700.00,5.60 29699.20,5.20 29698.40,4.00"/>
    </edge>
    <edge id=":node_2_7_0" function="internal">
        <lane id=":node_2_7_0_0" index="0" speed="25.00" length="4.67" shape="29698.40,0.00 29699.20,-1.20 29700.00,-1.60 29700.80,-1.20 29701.60,0.00"/>
    </edge>
    <edge id=":node_3_1_0" function="internal">
        <lane id=":node_3_1_0_0" index="0" speed="90.11" length="8.16" shape="39396.00,242.80 39398.46,242.30 39400.00,241.20 39401.54,240.10 39404.00,239.60"/>
        <lane id=":node_3_1_0_1" index="1" speed="90.11" length="8.16" shape="39396.00,242.80 39404.00,242.80"/>
        <lane id=":node_3_1_0_2" index="2" speed="90.11" length="8.16" shape="39396.00,246.00 39404.00,246.00"/>
        <lane id=":node_3_1_0_3" index="3" speed="90.11" length="8.16" shape="39396.00,249.20 39404.00,249.20"/>
        <lane id=":node_3_1_0_4" index="4" speed="90.11" length="8.16" shape="39396.00,252.40 39404.00,252.40"/>
    </edge>
    <edge id=":node_3_2_0" function="internal">
        <lane id=":node_3_2_0_0" index="0" speed="57.55" length="8.66" shape="39620.84,239.60 39623.40,239.56 39625.16,239.34 39626.83,238.75 39629.14,237.64"/>
    </edge>
    <edge id=":node_3_2_1" function="internal">
        <lane id=":node_3_2_1_0" index="0" speed="90.11" length="8.76" shape="39620.84,242.80 39629.60,242.80"/>
        <lane id=":node_3_2_1_1" index="1" speed="90.11" length="8.76" shape="39620.84,246.00 39629.60,246.00"/>
        <lane id=":node_3_2_1_2" index="2" speed="90.11" length="8.76" shape="39620.84,249.20 39629.60,249.20"/>
        <lane id=":node_3_2_1_3" index="3" speed="90.11" length="8.76" shape="39620.84,252.40 39629.60,252.40"/>
    </edge>
    <edge id=":node_3_3_0" function="internal">
        <lane id=":node_3_3_0_0" index="0" speed="57.55" length="8.66" shape="39770.86,237.64 39773.17,238.75 39774.84,239.34 39776.60,239.56 39779.16,239.60"/>
    </edge>
    <edge id=":node_3_3_1" function="internal">
        <lane id=":node_3_3_1_0" index="0" speed="90.11" length="8.76" shape="39770.40,242.80 39779.16,242.80"/>
        <lane id=":node_3_3_1_1" index="1" speed="90.11" length="8.76" shape="39770.40,246.00 39779.16,246.00"/>
        <lane id=":node_3_3_1_2" index="2" speed="90.11" length="8.76" shape="39770.40,249.20 39779.16,249.20"/>
        <lane id=":node_3_3_1_3" index="3" speed="90.11" length="8.76" shape="39770.40,252.40 39779.16,252.40"/>
    </edge>
    <edge id=":node_3_4_0" function="internal">
        <lane id=":node_3_4_0_0" index="0" speed="90.11" length="8.00" shape="39996.00,242.80 40004.00,242.80"/>
        <lane id=":node_3_4_0_1" index="1" speed="90.11" length="8.00" shape="39996.00,246.00 40004.00,246.00"/>
        <lane id=":node_3_4_0_2" index="2" speed="90.11" length="8.00" shape="39996.00,249.20 40004.00,249.20"/>
        <lane id=":node_3_4_0_3" index="3" speed="90.11" length="8.00" shape="39996.00,252.40 40004.00,252.40"/>
    </edge>
    <edge id=":node_3_5_0" function="internal">
        <lane id=":node_3_5_0_0" index="0" speed="25.00" length="6.22" shape="39701.60,199.55 39701.79,201.16 39702.37,202.53 39703.34,203.67 39704.70,204.56"/>
    </edge>
    <edge id=":node_3_5_1" function="internal">
        <lane id=":node_3_5_1_0" index="0" speed="25.00" length="2.53" shape="39701.60,199.55 39700.80,200.75 39700.00,201.15 39699.83,201.06"/>
    </edge>
    <edge id=":node_3_5_4" function="internal">
        <lane id=":node_3_5_4_0" index="0" speed="25.00" length="2.15" shape="39699.83,201.06 39699.20,200.75 39698.40,199.55"/>
    </edge>
    <edge id=":node_3_5_2" function="internal">
        <lane id=":node_3_5_2_0" index="0" speed="25.00" length="6.22" shape="39695.30,204.56 39696.66,203.67 39697.63,202.53 39698.21,201.16 39698.40,199.55"/>
    </edge>
    <edge id=":node_3_5_3" function="internal">
        <lane id=":node_3_5_3_0" index="0" speed="25.00" length="6.00" shape="39695.30,204.56 39697.65,203.68 39700.00,203.39 39701.12,203.52"/>
    </edge>
    <edge id=":node_3_5_5" function="internal">
        <lane id=":node_3_5_5_0" index="0" speed="25.00" length="3.75" shape="39701.12,203.52 39702.35,203.68 39704.70,204.56"/>
    </edge>
    <edge id=":node_3_6_0" function="internal">
        <lane id=":node_3_6_0_0" index="0" speed="25.00" length="0.10" shape="39698.40,4.00 39698.40,4.00"/>
    </edge>
    <edge id=":node_3_6_1" function="internal">
        <lane id=":node_3_6_1_0" index="0" speed="25.00" length="2.34" shape="39698.40,4.00 39699.20,2.80 39700.00,2.40"/>
    </edge>
    <edge id=":node_3_6_4" function="internal">
        <lane id=":node_3_6_4_0" index="0" speed="25.00" length="2.34" shape="39700.00,2.40 39700.80,2.80 39701.60,4.00"/>
    </edge>
    <edge id=":node_3_6_2" function="internal">
        <lane id=":node_3_6_2_0" index="0" speed="25.00" length="0.10" shape="39701.60,4.00 39701.60,4.00"/>
    </edge>
    <edge id=":node_3_6_3" function="internal">
        <lane id=":node_3_6_3_0" index="0" speed="25.00" length="2.34" shape="39701.60,4.00 39700.80,5.20 39700.00,5.60"/>
    </edge>
    <edge id=":node_3_6_5" function="internal">
        <lane id=":node_3_6_5_0" index="0" speed="25.00" length="2.34" shape="39700.00,5.60 39699.20,5.20 39698.40,4.00"/>
    </edge>
    <edge id=":node_3_7_0" function="internal">
        <lane id=":node_3_7_0_0" index="0" speed="25.00" length="4.67" shape="39698.40,0.00 39699.20,-1.20 39700.00,-1.60 39700.80,-1.20 39701.60,0.00"/>
    </edge>
    <edge id=":node_4_1_0" function="internal">
        <lane id=":node_4_1_0_0" index="0" speed="90.11" length="8.16" shape="49396.00,242.80 49398.46,242.30 49400.00,241.20 49401.54,240.10 49404.00,239.60"/>
        <lane id=":node_4_1_0_1" index="1" speed="90.11" length="8.16" shape="49396.00,242.80 49404.00,242.80"/>
        <lane id=":node_4_1_0_2" index="2" speed="90.11" length="8.16" shape="49396.00,246.00 49404.00,246.00"/>
        <lane id=":node_4_1_0_3" index="3" speed="90.11" length="8.16" shape="49396.00,249.20 49404.00,249.20"/>
        <lane id=":node_4_1_0_4" index="4" speed="90.11" length="8.16" shape="49396.00,252.40 49404.00,252.40"/>
    </edge>
    <edge id=":node_4_2_0" function="internal">
        <lane id=":node_4_2_0_0" index="0" speed="57.55" length="8.66" shape="49620.84,239.60 49623.40,239.56 49625.16,239.34 49626.83,238.75 49629.14,237.64"/>
    </edge>
    <edge id=":node_4_2_1" function="internal">
        <lane id=":node_4_2_1_0" index="0" speed="90.11" length="8.76" shape="49620.84,242.80 49629.60,242.80"/>
        <lane id=":node_4_2_1_1" index="1" speed="90.11" length="8.76" shape="49620.84,246.00 49629.60,246.00"/>
        <lane id=":node_4_2_1_2" index="2" speed="90.11" length="8.76" shape="49620.84,249.20 49629.60,249.20"/>
        <lane id=":node_4_2_1_3" index="3" speed="90.11" length="8.76" shape="49620.84,252.40 49629.60,252.40"/>
    </edge>
    <edge id=":node_4_3_0" function="internal">
        <lane id=":node_4_3_0_0" index="0" speed="57.55" length="8.66" shape="49770.86,237.64 49773.17,238.75 49774.84,239.34 49776.60,239.56 49779.16,239.60"/>
    </edge>
    <edge id=":node_4_3_1" function="internal">
        <lane id=":node_4_3_1_0" index="0" speed="90.11" length="8.76" shape="49770.40,242.80 49779.16,242.80"/>
        <lane id=":node_4_3_1_1" index="1" speed="90.11" length="8.76" shape="49770.40,246.00 49779.16,246.00"/>
        <lane id=":node_4_3_1_2" index="2" speed="90.11" length="8.76" shape="49770.40,249.20 49779.16,249.20"/>
        <lane id=":node_4_3_1_3" index="3" speed="90.11" length="8.76" shape="49770.40,252.40 49779.16,252.40"/>
    </edge>
    <edge id=":node_4_5_0" function="internal">
        <lane id=":node_4_5_0_0" index="0" speed="25.00" length="6.22" shape="49701.60,199.55 49701.79,201.16 49702.37,202.53 49703.34,203.67 49704.70,204.56"/>
    </edge>
    <edge id=":node_4_5_1" function="internal">
        <lane id=":node_4_5_1_0" index="0" speed="25.00" length="2.53" shape="49701.60,199.55 49700.80,200.75 49700.00,201.15 49699.83,201.06"/>
    </edge>
    <edge id=":node_4_5_4" function="internal">
        <lane id=":node_4_5_4_0" index="0" speed="25.00" length="2.15" shape="49699.83,201.06 49699.20,200.75 49698.40,199.55"/>
    </edge>
    <edge id=":node_4_5_2" function="internal">
        <lane id=":node_4_5_2_0" index="0" speed="25.00" length="6.22" shape="49695.30,204.56 49696.66,203.67 49697.63,202.53 49698.21,201.16 49698.40,199.55"/>
    </edge>
    <edge id=":node_4_5_3" function="internal">
        <lane id=":node_4_5_3_0" index="0" speed="25.00" length="6.00" shape="49695.30,204.56 49697.65,203.68 49700.00,203.39 49701.12,203.52"/>
    </edge>
    <edge id=":node_4_5_5" function="internal">
        <lane id=":node_4_5_5_0" index="0" speed="25.00" length="3.75" shape="49701.12,203.52 49702.35,203.68 49704.70,204.56"/>
    </edge>
    <edge id=":node_4_6_0" function="internal">
        <lane id=":node_4_6_0_0" index="0" speed="25.00" length="0.10" shape="49698.40,4.00 49698.40,4.00"/>
    </edge>
    <edge id=":node_4_6_1" function="internal">
        <lane id=":node_4_6_1_0" index="0" speed="25.00" length="2.34" shape="49698.40,4.00 49699.20,2.80 49700.00,2.40"/>
    </edge>
    <edge id=":node_4_6_4" function="internal">
        <lane id=":node_4_6_4_0" index="0" speed="25.00" length="2.34" shape="49700.00,2.40 49700.80,2.80 49701.60,4.00"/>
    </edge>
    <edge id=":node_4_6_2" function="internal">
        <lane id=":node_4_6_2_0" index="0" speed="25.00" length="0.10" shape="49701.60,4.00 49701.60,4.00"/>
    </edge>
    <edge id=":node_4_6_3" function="internal">
        <lane id=":node_4_6_3_0" index="0" speed="25.00" length="2.34" shape="49701.60,4.00 49700.80,5.20 49700.00,5.60"/>
    </edge>
    <edge id=":node_4_6_5" function="internal">
        <lane id=":node_4_6_5_0" index="0" speed="25.00" length="2.34" shape="49700.00,5.60 49699.20,5.20 49698.40,4.00"/>
    </edge>
    <edge id=":node_4_7_0" function="internal">
        <lane id=":node_4_7_0_0" index="0" speed="25.00" length="4.67" shape="49698.40,0.00 49699.20,-1.20 49700.00,-1.60 49700.80,-1.20 49701.60,0.00"/>
    </edge>

    <edge id="absorption_0" from="node_0_6" to="node_0_7" priority="7">
        <lane id="absorption_0_0" index="0" speed="25.00" length="4.00" shape="9698.40,4.00 9698.40,0.00"/>
    </edge>
    <edge id="absorption_1" from="node_1_6" to="node_1_7" priority="7">
        <lane id="absorption_1_0" index="0" speed="25.00" length="4.00" shape="19698.40,4.00 19698.40,0.00"/>
    </edge>
    <edge id="absorption_2" from="node_2_6" to="node_2_7" priority="7">
        <lane id="absorption_2_0" index="0" speed="25.00" length="4.00" shape="29698.40,4.00 29698.40,0.00"/>
    </edge>
    <edge id="absorption_3" from="node_3_6" to="node_3_7" priority="7">
        <lane id="absorption_3_0" index="0" speed="25.00" length="4.00" shape="39698.40,4.00 39698.40,0.00"/>
    </edge>
    <edge id="absorption_4" from="node_4_6" to="node_4_7" priority="7">
        <lane id="absorption_4_0" index="0" speed="25.00" length="4.00" shape="49698.40,4.00 49698.40,0.00"/>
    </edge>
    <edge id="edge_0_0" from="node_0_0" to="node_0_1" priority="7">
        <lane id="edge_0_0_0" index="0" speed="90.11" length="9396.00" shape="0.00,249.20 9396.00,249.20"/>
        <lane id="edge_0_0_1" index="1" speed="90.11" length="9396.00" shape="0.00,252.40 9396.00,252.40"/>
    </edge>
    <edge id="edge_0_1" from="node_0_1" to="node_0_2" priority="7">
        <lane id="edge_0_1_0" index="0" speed="90.11" length="216.84" shape="9404.00,239.60 9620.84,239.60"/>
        <lane id="edge_0_1_1" index="1" speed="90.11" length="216.84" shape="9404.00,242.80 9620.84,242.80"/>
        <lane id="edge_0_1_2" index="2" speed="90.11" length="216.84" shape="9404.00,246.00 9620.84,246.00"/>
        <lane id="edge_0_1_3" index="3" speed="90.11" length="216.84" shape="9404.00,249.20 9620.84,249.20"/>
        <lane id="edge_0_1_4" index="4" speed="90.11" length="216.84" shape="9404.00,252.40 9620.84,252.40"/>
    </edge>
    <edge id="edge_0_2" from="node_0_2" to="node_0_3" priority="7">
        <lane id="edge_0_2_0" index="0" speed="90.11" length="140.80" shape="9629.60,242.80 9770.40,242.80"/>
        <lane id="edge_0_2_1" index="1" speed="90.11" length="140.80" shape="9629.60,246.00 9770.40,246.00"/>
        <lane id="edge_0_2_2" index="2" speed="90.11" length="140.80" shape="9629.60,249.20 9770.40,249.20"/>
        <lane id="edge_0_2_3" index="3" speed="90.11" length="140.80" shape="9629.60,252.40 9770.40,252.40"/>
    </edge>
    <edge id="edge_0_3" from="node_0_3" to="node_0_4" priority="7">
        <lane id="edge_0_3_0" index="0" speed="90.11" length="216.84" shape="9779.16,239.60 9996.00,239.60"/>
        <lane id="edge_0_3_1" index="1" speed="90.11" length="216.84" shape="9779.16,242.80 9996.00,242.80"/>
        <lane id="edge_0_3_2" index="2" speed="90.11" length="216.84" shape="9779.16,246.00 9996.00,246.00"/>
        <lane id="edge_0_3_3" index="3" speed="90.11" length="216.84" shape="9779.16,249.20 9996.00,249.20"/>
        <lane id="edge_0_3_4" index="4" speed="90.11" length="216.84" shape="9779.16,252.40 9996.00,252.40"/>
    </edge>
    <edge id="edge_0_4" from="node_0_2" to="node_0_5" priority="7">
        <lane id="edge_0_4_0" index="0" speed="25.00" length="73.98" shape="9629.14,237.64 9695.30,204.56"/>
    </edge>
    <edge id="edge_0_5" from="node_0_5" to="node_0_3" priority="7">