<?xml version="1.0" encoding="iso-8859-1"?>
<configuration xmlns:xsi="http://www.w3.org/2001/XMLSchema-instance" xsi:noNamespaceSchemaLocation="http://sumo.sf.net/xsd/sumoConfiguration.xsd">

    <input>
        <net-file value="sorpasso.net.xml"/>
        <route-files value="sorpasso.rou.xml"/>
    </input>

    <time>
        <begin value="0"/>
        <end value="81600"/>
        <step-length value="0.01"/>
    </time>
    <processing>
        <step-method.ballistic value="true"/>
        <collision.action value="warn"/>
    </processing>

    <gui_only>
        <start value="true"/>
        <gui-settings-file value="sorpasso.gui.xml"/>
    </gui_only>

</configuration>
